
OS:Version,
  {54994226-4a28-4674-b6d3-f2d7badc4f0e}, !- Handle
  1.0.3;                                  !- Version Identifier

OS:Schedule:Ruleset,
  {9da55c87-3914-4e6c-b978-02d412474d0f}, !- Handle
  Always_On,                              !- Name
  {ebef650e-b8ae-4ff8-a1ff-063605768017}, !- Schedule Type Limits Name
  {dcd4ea78-9271-48be-8c4b-4009f3229adb}, !- Default Day Schedule Name
  {8e256c71-8a40-4320-9484-99d5cf0f7d43}, !- Summer Design Day Schedule Name
  {723b47ee-7013-45c9-89e4-9810d3cf8578}; !- Winter Design Day Schedule Name

OS:Schedule:Day,
  {dcd4ea78-9271-48be-8c4b-4009f3229adb}, !- Handle
  Always_On_Default,                      !- Name
  {ebef650e-b8ae-4ff8-a1ff-063605768017}, !- Schedule Type Limits Name
  ,                                       !- Interpolate to Timestep
  24,                                     !- Hour 1
  0,                                      !- Minute 1
  1;                                      !- Value Until Time 1

OS:Schedule:Day,
  {503bc57c-72c6-4788-ad5b-9aeb7055c198}, !- Handle
  Schedule Day 2,                         !- Name
  ,                                       !- Schedule Type Limits Name
  ,                                       !- Interpolate to Timestep
  24,                                     !- Hour 1
  0,                                      !- Minute 1
  0;                                      !- Value Until Time 1

OS:Schedule:Day,
  {723b47ee-7013-45c9-89e4-9810d3cf8578}, !- Handle
  Always_On_Winter_Design_Day,            !- Name
  {ebef650e-b8ae-4ff8-a1ff-063605768017}, !- Schedule Type Limits Name
  ,                                       !- Interpolate to Timestep
  24,                                     !- Hour 1
  0,                                      !- Minute 1
  1;                                      !- Value Until Time 1

OS:Schedule:Day,
  {4d9ba3a2-bf9e-41a2-b1d1-61c605b3f47a}, !- Handle
  Schedule Day 3,                         !- Name
  ,                                       !- Schedule Type Limits Name
  ,                                       !- Interpolate to Timestep
  24,                                     !- Hour 1
  0,                                      !- Minute 1
  0;                                      !- Value Until Time 1

OS:Schedule:Day,
  {8e256c71-8a40-4320-9484-99d5cf0f7d43}, !- Handle
  Always_On_Summer_Design_Day,            !- Name
  {ebef650e-b8ae-4ff8-a1ff-063605768017}, !- Schedule Type Limits Name
  ,                                       !- Interpolate to Timestep
  24,                                     !- Hour 1
  0,                                      !- Minute 1
  1;                                      !- Value Until Time 1

OS:Schedule:Ruleset,
  {e174bc2a-d115-4d1c-9121-12ca6876b86d}, !- Handle
  Always_Off,                             !- Name
  ,                                       !- Schedule Type Limits Name
  {8fa3ff61-9e5b-4828-9fd4-fd7d7fbcc4e4}, !- Default Day Schedule Name
  {f1a26bc8-0977-49d7-972d-3dfd939bfd45}, !- Summer Design Day Schedule Name
  {c9e296ab-6ca0-4921-a27a-d1ae9c3fe72f}; !- Winter Design Day Schedule Name

OS:Schedule:Day,
  {8fa3ff61-9e5b-4828-9fd4-fd7d7fbcc4e4}, !- Handle
  Always_Off_Default,                     !- Name
  ,                                       !- Schedule Type Limits Name
  ,                                       !- Interpolate to Timestep
  24,                                     !- Hour 1
  0,                                      !- Minute 1
  0;                                      !- Value Until Time 1

OS:Schedule:Day,
  {ab650c4a-3c7d-4083-ad47-44a8a6d702e1}, !- Handle
  Schedule Day 4,                         !- Name
  ,                                       !- Schedule Type Limits Name
  ,                                       !- Interpolate to Timestep
  24,                                     !- Hour 1
  0,                                      !- Minute 1
  0;                                      !- Value Until Time 1

OS:Schedule:Day,
  {c9e296ab-6ca0-4921-a27a-d1ae9c3fe72f}, !- Handle
  Always_Off_Winter_Design_Day,           !- Name
  ,                                       !- Schedule Type Limits Name
  ,                                       !- Interpolate to Timestep
  24,                                     !- Hour 1
  0,                                      !- Minute 1
  0;                                      !- Value Until Time 1

OS:Schedule:Day,
  {64ce58d9-f0c5-4b22-b598-26ffe5321f31}, !- Handle
  Schedule Day 5,                         !- Name
  ,                                       !- Schedule Type Limits Name
  ,                                       !- Interpolate to Timestep
  24,                                     !- Hour 1
  0,                                      !- Minute 1
  0;                                      !- Value Until Time 1

OS:Schedule:Day,
  {f1a26bc8-0977-49d7-972d-3dfd939bfd45}, !- Handle
  Always_Off_Summer_Design_Day,           !- Name
  ,                                       !- Schedule Type Limits Name
  ,                                       !- Interpolate to Timestep
  24,                                     !- Hour 1
  0,                                      !- Minute 1
  0;                                      !- Value Until Time 1

OS:Schedule:Ruleset,
  {0c1dca30-9e50-44d3-ad2a-3e6cf0cf1e92}, !- Handle
  Deck_Temperature,                       !- Name
  ,                                       !- Schedule Type Limits Name
  {4f79f786-6322-444a-a474-088cf01a1236}, !- Default Day Schedule Name
  {966242ae-83e3-4548-9821-f12350c8a839}, !- Summer Design Day Schedule Name
  {dc59c9ca-3621-4253-9ec1-6849c94eba14}; !- Winter Design Day Schedule Name

OS:Schedule:Day,
  {4f79f786-6322-444a-a474-088cf01a1236}, !- Handle
  Deck_Temperature_Default,               !- Name
  ,                                       !- Schedule Type Limits Name
  ,                                       !- Interpolate to Timestep
  24,                                     !- Hour 1
  0,                                      !- Minute 1
  12.8;                                   !- Value Until Time 1

OS:Schedule:Day,
  {518c2e1e-1122-4e13-91ab-a4ca8daac6ae}, !- Handle
  Schedule Day 6,                         !- Name
  ,                                       !- Schedule Type Limits Name
  ,                                       !- Interpolate to Timestep
  24,                                     !- Hour 1
  0,                                      !- Minute 1
  0;                                      !- Value Until Time 1

OS:Schedule:Day,
  {dc59c9ca-3621-4253-9ec1-6849c94eba14}, !- Handle
  Deck_Temperature_Winter_Design_Day,     !- Name
  ,                                       !- Schedule Type Limits Name
  ,                                       !- Interpolate to Timestep
  24,                                     !- Hour 1
  0,                                      !- Minute 1
  12.8;                                   !- Value Until Time 1

OS:Schedule:Day,
  {c11e9628-b327-477d-b415-fb5004cba6a0}, !- Handle
  Schedule Day 7,                         !- Name
  ,                                       !- Schedule Type Limits Name
  ,                                       !- Interpolate to Timestep
  24,                                     !- Hour 1
  0,                                      !- Minute 1
  0;                                      !- Value Until Time 1

OS:Schedule:Day,
  {966242ae-83e3-4548-9821-f12350c8a839}, !- Handle
  Deck_Temperature_Summer_Design_Day,     !- Name
  ,                                       !- Schedule Type Limits Name
  ,                                       !- Interpolate to Timestep
  24,                                     !- Hour 1
  0,                                      !- Minute 1
  12.8;                                   !- Value Until Time 1

OS:Construction,
  {71a2ffa1-fd8b-4e11-94b0-3ba3afa56fbe}, !- Handle
  INT-FLOOR-TOPSIDE,                      !- Name
  ,                                       !- Surface Rendering Name
  {1381fc8d-9f7e-41be-b595-7f3c573db0e6}, !- Layer 1
  {7b5ad4a5-676f-48de-94a2-dae9b13a1206}, !- Layer 2
  {edb5b903-576a-4035-8f4e-d28954d5b53a}; !- Layer 3

OS:Material,
  {1381fc8d-9f7e-41be-b595-7f3c573db0e6}, !- Handle
  1/2IN Gypsum,                           !- Name
  Smooth,                                 !- Roughness
  0.0127,                                 !- Thickness {m}
  0.1600,                                 !- Conductivity {W/m-K}
  784.9000,                               !- Density {kg/m3}
  830.0000,                               !- Specific Heat {J/kg-K}
  0.9000,                                 !- Thermal Absorptance
  0.9200,                                 !- Solar Absorptance
  0.9200;                                 !- Visible Absorptance

OS:Material,
  {7b5ad4a5-676f-48de-94a2-dae9b13a1206}, !- Handle
  4IN CONCRETE HW,                        !- Name
  Rough,                                  !- Roughness
  0.1016,                                 !- Thickness {m}
  1.3110,                                 !- Conductivity {W/m-K}
  2240.0000,                              !- Density {kg/m3}
  836.8000,                               !- Specific Heat {J/kg-K}
  0.9000,                                 !- Thermal Absorptance
  0.7000,                                 !- Solar Absorptance
  0.7000;                                 !- Visible Absorptance

OS:Material:NoMass,
  {edb5b903-576a-4035-8f4e-d28954d5b53a}, !- Handle
  CP02 CARPET PAD,                        !- Name
  VeryRough,                              !- Roughness
  0.2165,                                 !- Thermal Resistance {m2-K/W}
  0.9000,                                 !- Thermal Absorptance
  0.7000,                                 !- Solar Absorptance
  0.8000;                                 !- Visible Absorptance

OS:StandardsInformation:Construction,
  {13e90876-a28c-4905-92d8-c3420fe31ef4}, !- Handle
  {71a2ffa1-fd8b-4e11-94b0-3ba3afa56fbe}, ! Construction Name
  ,                                       ! Intended Surface Type
  Mass,                                   ! Construction Type
  0,                                      ! Perturbable Layer
  Insulation,                             ! Perturbable Layer Type
  ;                                       ! Other Perturbable Layer Type

OS:Construction,
  {319b8a24-8bc7-4255-8149-b2c4ecb1b022}, !- Handle
  INT-FLOOR-UNDERSIDE,                    !- Name
  ,                                       !- Surface Rendering Name
  {edb5b903-576a-4035-8f4e-d28954d5b53a}, !- Layer 1
  {7b5ad4a5-676f-48de-94a2-dae9b13a1206}, !- Layer 2
  {1381fc8d-9f7e-41be-b595-7f3c573db0e6}; !- Layer 3

OS:StandardsInformation:Construction,
  {5ffec5f6-cbfb-46f3-9356-995d54336a81}, !- Handle
  {319b8a24-8bc7-4255-8149-b2c4ecb1b022}, ! Construction Name
  ,                                       ! Intended Surface Type
  Mass,                                   ! Construction Type
  1,                                      ! Perturbable Layer
  Insulation,                             ! Perturbable Layer Type
  ;                                       ! Other Perturbable Layer Type

OS:Construction,
  {4a404151-f047-46b6-b8aa-5b405ac414b6}, !- Handle
  Standard_Int-Wall,                      !- Name
  ,                                       !- Surface Rendering Name
  {1381fc8d-9f7e-41be-b595-7f3c573db0e6}, !- Layer 1
  {1381fc8d-9f7e-41be-b595-7f3c573db0e6}; !- Layer 2

OS:StandardsInformation:Construction,
  {75934339-2ef9-4d87-a15f-750cbe71f21a}, !- Handle
  {4a404151-f047-46b6-b8aa-5b405ac414b6}, ! Construction Name
  ,                                       ! Intended Surface Type
  Mass,                                   ! Construction Type
  0,                                      ! Perturbable Layer
  Insulation,                             ! Perturbable Layer Type
  ;                                       ! Other Perturbable Layer Type

OS:DefaultSurfaceConstructions,
  {0c8ba3c6-c45a-4b17-b709-4eb7c675b3f4}, !- Handle
  Default Surface Constructions 1,        !- Name
  {71a2ffa1-fd8b-4e11-94b0-3ba3afa56fbe}, !- Floor Construction Name
  {4a404151-f047-46b6-b8aa-5b405ac414b6}, !- Wall Construction Name
  {319b8a24-8bc7-4255-8149-b2c4ecb1b022}; !- Roof Ceiling Construction Name

OS:DefaultConstructionSet,
  {0f9a8395-c42d-4916-9b9d-fe56c80a5537}, !- Handle
  Default Construction Set 1,             !- Name
  ,                                       !- Default Exterior Surface Constructions Name
  {0c8ba3c6-c45a-4b17-b709-4eb7c675b3f4}, !- Default Interior Surface Constructions Name
  ,                                       !- Default Ground Contact Surface Constructions Name
  ,                                       !- Default Exterior SubSurface Constructions Name
  ,                                       !- Default Interior SubSurface Constructions Name
  ,                                       !- Interior Partition Construction Name
  ,                                       !- Space Shading Construction Name
  ,                                       !- Building Shading Construction Name
  ;                                       !- Site Shading Construction Name

OS:Building,
  {2bb3a20f-07f3-4781-a188-d92ac1f05002}, !- Handle
  Small Office,                           !- Name
  ,                                       !- Building Type
  ,                                       !- North Axis {deg}
  ,                                       !- Nominal Floor to Floor Height {m}
  ,                                       !- Space Type Name
  {0f9a8395-c42d-4916-9b9d-fe56c80a5537}, !- Default Construction Set Name
  ;                                       !- Default Schedule Set Name

! Exterior Walls
OS:Construction,
  {8559c41f-79be-49a0-9c41-77bd3815c535}, !- Handle
  Siding_Wood_Frame_Wall,                 !- Name
  ,                                       !- Surface Rendering Name
  {4621efd6-9770-4c08-815d-76ce129d8386}, !- Layer 1
  {32034a2a-7a1a-4fef-bc75-20560f8fa597}, !- Layer 2
  {1381fc8d-9f7e-41be-b595-7f3c573db0e6}; !- Layer 3

OS:Material,
  {4621efd6-9770-4c08-815d-76ce129d8386}, !- Handle
  Wood Siding,                            !- Name
  MediumSmooth,                           !- Roughness
  0.0100,                                 !- Thickness {m}
  0.1100,                                 !- Conductivity {W/m-K}
  544.6200,                               !- Density {kg/m3}
  1210.0000,                              !- Specific Heat {J/kg-K}
  0.9000,                                 !- Thermal Absorptance
  0.7800,                                 !- Solar Absorptance
  0.7800;                                 !- Visible Absorptance

OS:Material,
  {32034a2a-7a1a-4fef-bc75-20560f8fa597}, !- Handle
  Wood Frame Wall Insulation,             !- Name
  MediumRough,                            !- Roughness
  0.0886156230125502,                     !- Thickness {m}
  0.049,                                  !- Conductivity {W/m-K}
  265.0000,                               !- Density {kg/m3}
  836.8000,                               !- Specific Heat {J/kg-K}
  0.9000,                                 !- Thermal Absorptance
  0.7000,                                 !- Solar Absorptance
  0.7000;                                 !- Visible Absorptance

OS:StandardsInformation:Construction,
  {0f151ddd-1a10-4ee1-be91-e8bc751b2968}, !- Handle
  {8559c41f-79be-49a0-9c41-77bd3815c535}, ! Construction Name
  ,                                       ! Intended Surface Type
  Wood-Framed,                            ! Construction Type
  1,                                      ! Perturbable Layer
  Insulation,                             ! Perturbable Layer Type
  ;                                       ! Other Perturbable Layer Type

! Roof
OS:Construction,
  {df93dc11-7858-488e-ad9a-18881c044bc1}, !- Handle
  IEAD_Wood_Deck,                         !- Name
  ,                                       !- Surface Rendering Name
  {f3f7cb12-3b57-40b0-b29a-78c747248f1e}, !- Layer 1
  {cce1f4bf-b85c-4b9e-a371-7ec016de9021}, !- Layer 2
  {83a28561-00e0-4b27-a430-7b73abffaa66}; !- Layer 3

OS:Material,
  {f3f7cb12-3b57-40b0-b29a-78c747248f1e}, !- Handle
  Roof Membrane,                          !- Name
  VeryRough,                              !- Roughness
  0.0095,                                 !- Thickness {m}
  0.1600,                                 !- Conductivity {W/m-K}
  1121.2900,                              !- Density {kg/m3}
  1460.0000,                              !- Specific Heat {J/kg-K}
  0.9000,                                 !- Thermal Absorptance
  0.7000,                                 !- Solar Absorptance
  0.7000;                                 !- Visible Absorptance

OS:Material,
  {cce1f4bf-b85c-4b9e-a371-7ec016de9021}, !- Handle
  IEAD Roof Insulation,                   !- Name
  MediumRough,                            !- Roughness
  0.24700404190775,                       !- Thickness {m}
  0.049,                                  !- Conductivity {W/m-K}
  265.0000,                               !- Density {kg/m3}
  836.8000,                               !- Specific Heat {J/kg-K}
  0.9000,                                 !- Thermal Absorptance
  0.7000,                                 !- Solar Absorptance
  0.7000;                                 !- Visible Absorptance

OS:Material,
  {83a28561-00e0-4b27-a430-7b73abffaa66}, !- Handle
  1/2IN Gypsum 1,                         !- Name
  Smooth,                                 !- Roughness
  0.01271,                                !- Thickness {m}
  0.16,                                   !- Conductivity {W/m-K}
  784.9,                                  !- Density {kg/m3}
  830,                                    !- Specific Heat {J/kg-K}
  0.9,                                    !- Thermal Absorptance
  0.92,                                   !- Solar Absorptance
  0.92;                                   !- Visible Absorptance

OS:StandardsInformation:Construction,
  {282ee4ec-a76a-4f05-a15a-e7e82c77f4ff}, !- Handle
  {df93dc11-7858-488e-ad9a-18881c044bc1}, ! Construction Name
  ,                                       ! Intended Surface Type
  IEAD,                                   ! Construction Type
  1,                                      ! Perturbable Layer
  Insulation,                             ! Perturbable Layer Type
  ;                                       ! Other Perturbable Layer Type

OS:Construction,
  {c801c943-bb6e-476e-bf60-ac1b87508b27}, !- Handle
  Insul_slab,                             !- Name
  ,                                       !- Surface Rendering Name
  {65ad6589-f328-409e-bd30-3798d2cc64bf}, !- Layer 1
  {01cd8b2f-6d36-4fac-bb9f-a95464fed511}; !- Layer 2

OS:Material,
  {65ad6589-f328-409e-bd30-3798d2cc64bf}, !- Handle
  Floor Insulation,                       !- Name
  MediumRough,                            !- Roughness
  0.0795,                                 !- Thickness {m}
  0.0450,                                 !- Conductivity {W/m-K}
  265.0000,                               !- Density {kg/m3}
  836.8000,                               !- Specific Heat {J/kg-K}
  0.9000,                                 !- Thermal Absorptance
  0.7000,                                 !- Solar Absorptance
  0.7000;                                 !- Visible Absorptance

OS:Material,
  {01cd8b2f-6d36-4fac-bb9f-a95464fed511}, !- Handle
  MAT-CC05 8 HW CONCRETE,                 !- Name
  Rough,                                  !- Roughness
  0.2032,                                 !- Thickness {m}
  1.3110,                                 !- Conductivity {W/m-K}
  2240.0000,                              !- Density {kg/m3}
  836.8000,                               !- Specific Heat {J/kg-K}
  0.9000,                                 !- Thermal Absorptance
  0.7000,                                 !- Solar Absorptance
  0.7000;                                 !- Visible Absorptance

OS:StandardsInformation:Construction,
  {23676816-2e48-4ef1-a706-03b56ca0a608}, !- Handle
  {c801c943-bb6e-476e-bf60-ac1b87508b27}, ! Construction Name
  ,                                       ! Intended Surface Type
  Exterior Floor:Slab,                    ! Construction Type
  0,                                      ! Perturbable Layer
  Insulation,                             ! Perturbable Layer Type
  ;                                       ! Other Perturbable Layer Type

OS:WindowMaterial:SimpleGlazingSystem,
  {c1d141a0-7974-4bd0-a63b-976ef1f560a5}, !- Handle
  Glazing Layer,                          !- Name
  3.2366098693859,                        !- U-Factor {W/m2-K}
  0.389999985694885,                      !- Solar Heat Gain Coefficient
  0.7;                                    !- Visible Transmittance

OS:Construction,
  {45b9287e-1db9-4e81-bd66-a7f4215b4447}, !- Handle
  fenestration___,                        !- Name
  ,                                       !- Surface Rendering Name
  {c1d141a0-7974-4bd0-a63b-976ef1f560a5}; !- Layer 1

OS:PlantLoop,
  {49e73564-8486-45fd-8f53-8c2e8102e049}, !- Handle
  SWPlant 212,                            !- Name
  ,                                       !- Fluid Type
  ,                                       !- User Defined Fluid Type
  ,                                       !- Plant Equipment Operation Scheme Name
  {f7098583-618a-41d5-bee6-6296215df2ec}, !- Loop Temperature Setpoint Node Name
  ,                                       !- Maximum Loop Temperature {C}
  ,                                       !- Minimum Loop Temperature {C}
  ,                                       !- Maximum Loop Flow Rate {m3/s}
  ,                                       !- Minimum Loop Flow Rate {m3/s}
  Autocalculate,                          !- Plant Loop Volume {m3}
  {45e30d94-c3c6-45a7-9ebe-076211710f38}, !- Plant Side Inlet Node Name
  {5f0d2abd-1b33-4b59-ace4-cccd722d5f10}, !- Plant Side Outlet Node Name
  ,                                       !- Plant Side Branch List Name
  {c6347320-6f53-4858-94cb-36dcc9df9a54}, !- Demand Side Inlet Node Name
  {a4f9d087-662f-4830-b424-576426ca7264}, !- Demand Side Outlet Node Name
  ,                                       !- Demand Side Branch List Name
  ,                                       !- Demand Side Connector List Name
  ,                                       !- Load Distribution Scheme
  ,                                       !- Availability Manager List Name
  ,                                       !- Plant Loop Demand Calculation Scheme
  ,                                       !- Common Pipe Simulation
  ;                                       !- Pressure Simulation Type

OS:Sizing:Plant,
  {9ced6601-8a7b-46de-a390-b1f1d89b0f85}, !- Handle
  {49e73564-8486-45fd-8f53-8c2e8102e049}, !- Plant or Condenser Loop Name
  Heating,                                !- Loop Type
  60,                                     !- Design Loop Exit Temperature {C}
  5;                                      !- Loop Design Temperature Difference {deltaC}

OS:Node,
  {7de19695-de9c-4f14-b3f7-08dea75454f3}, !- Handle
  Node 1,                                 !- Name
  {45e30d94-c3c6-45a7-9ebe-076211710f38}, !- Inlet Port
  {32b95880-e414-4d32-868e-e9bc9dc458aa}; !- Outlet Port

OS:Node,
  {f7098583-618a-41d5-bee6-6296215df2ec}, !- Handle
  Node 2,                                 !- Name
  {b2bc0a57-162e-4a2c-bb71-f3046d1c79b5}, !- Inlet Port
  {5f0d2abd-1b33-4b59-ace4-cccd722d5f10}; !- Outlet Port

OS:Node,
  {94b4b742-484f-4d6f-ad8c-7bd27fd5a1e2}, !- Handle
  Node 3,                                 !- Name
  {2514bd7b-26db-4607-be76-b8a5ddba24ec}, !- Inlet Port
  {51a9a13e-ef58-4a80-9a50-790932199fba}; !- Outlet Port

OS:Connector:Mixer,
  {990312bb-c0a1-49ad-8b7b-dc53b0e5f512}, !- Handle
  Connector Mixer 1,                      !- Name
  {b2bc0a57-162e-4a2c-bb71-f3046d1c79b5}, !- Outlet Branch Name
  {e92ee71e-536a-4d89-a870-032e2ed457e8}; !- Inlet Branch Name 1

OS:Connector:Splitter,
  {896d5b11-a3e2-40ce-9a1e-dccc0014d9f0}, !- Handle
  Connector Splitter 1,                   !- Name
  {46ed8558-a96b-46ba-bbfd-aed75eff3a99}, !- Inlet Branch Name
  {2514bd7b-26db-4607-be76-b8a5ddba24ec}; !- Outlet Branch Name 1

OS:Connection,
  {45e30d94-c3c6-45a7-9ebe-076211710f38}, !- Handle
  Connection 1,                           !- Name
  {49e73564-8486-45fd-8f53-8c2e8102e049}, !- Source Object
  11,                                     !- Outlet Port
  {7de19695-de9c-4f14-b3f7-08dea75454f3}, !- Target Object
  2;                                      !- Inlet Port

OS:Connection,
  {2514bd7b-26db-4607-be76-b8a5ddba24ec}, !- Handle
  Connection 3,                           !- Name
  {896d5b11-a3e2-40ce-9a1e-dccc0014d9f0}, !- Source Object
  3,                                      !- Outlet Port
  {94b4b742-484f-4d6f-ad8c-7bd27fd5a1e2}, !- Target Object
  2;                                      !- Inlet Port

OS:Connection,
  {b2bc0a57-162e-4a2c-bb71-f3046d1c79b5}, !- Handle
  Connection 5,                           !- Name
  {990312bb-c0a1-49ad-8b7b-dc53b0e5f512}, !- Source Object
  2,                                      !- Outlet Port
  {f7098583-618a-41d5-bee6-6296215df2ec}, !- Target Object
  2;                                      !- Inlet Port

OS:Connection,
  {5f0d2abd-1b33-4b59-ace4-cccd722d5f10}, !- Handle
  Connection 6,                           !- Name
  {f7098583-618a-41d5-bee6-6296215df2ec}, !- Source Object
  3,                                      !- Outlet Port
  {49e73564-8486-45fd-8f53-8c2e8102e049}, !- Target Object
  12;                                     !- Inlet Port

OS:Node,
  {6b448dae-57aa-4303-9414-840735e6272c}, !- Handle
  Node 4,                                 !- Name
  {c6347320-6f53-4858-94cb-36dcc9df9a54}, !- Inlet Port
  {2903c2d6-a16c-41e4-8ba5-f370fb0b8cee}; !- Outlet Port

OS:Node,
  {1c9b057c-c78c-420e-8ad2-9e681f5b23fc}, !- Handle
  Node 5,                                 !- Name
  {47168e9c-ac76-44e5-a71b-7fecab7d2cc8}, !- Inlet Port
  {a4f9d087-662f-4830-b424-576426ca7264}; !- Outlet Port

OS:Node,
  {ab0ede25-5e7e-4d92-9772-4f71622085b0}, !- Handle
  Node 6,                                 !- Name
  {d0a988c9-2560-419e-8ca6-8aab4905ca2f}, !- Inlet Port
  {1270e824-fdf8-4fd9-a113-66ba0ac77cbd}; !- Outlet Port

OS:Connector:Mixer,
  {ead593e8-bfb3-4c1c-9808-b63931479c0e}, !- Handle
  Connector Mixer 2,                      !- Name
  {47168e9c-ac76-44e5-a71b-7fecab7d2cc8}, !- Outlet Branch Name
  {79102a44-3a40-4832-9089-296c65869d26}; !- Inlet Branch Name 1

OS:Connector:Splitter,
  {636768b7-0e4c-409d-818b-ad12f16fd710}, !- Handle
  Connector Splitter 2,                   !- Name
  {2903c2d6-a16c-41e4-8ba5-f370fb0b8cee}, !- Inlet Branch Name
  {d0a988c9-2560-419e-8ca6-8aab4905ca2f}; !- Outlet Branch Name 1

OS:Connection,
  {c6347320-6f53-4858-94cb-36dcc9df9a54}, !- Handle
  Connection 7,                           !- Name
  {49e73564-8486-45fd-8f53-8c2e8102e049}, !- Source Object
  14,                                     !- Outlet Port
  {6b448dae-57aa-4303-9414-840735e6272c}, !- Target Object
  2;                                      !- Inlet Port

OS:Connection,
  {2903c2d6-a16c-41e4-8ba5-f370fb0b8cee}, !- Handle
  Connection 8,                           !- Name
  {6b448dae-57aa-4303-9414-840735e6272c}, !- Source Object
  3,                                      !- Outlet Port
  {636768b7-0e4c-409d-818b-ad12f16fd710}, !- Target Object
  2;                                      !- Inlet Port

OS:Connection,
  {d0a988c9-2560-419e-8ca6-8aab4905ca2f}, !- Handle
  Connection 9,                           !- Name
  {636768b7-0e4c-409d-818b-ad12f16fd710}, !- Source Object
  3,                                      !- Outlet Port
  {ab0ede25-5e7e-4d92-9772-4f71622085b0}, !- Target Object
  2;                                      !- Inlet Port

OS:Connection,
  {47168e9c-ac76-44e5-a71b-7fecab7d2cc8}, !- Handle
  Connection 11,                          !- Name
  {ead593e8-bfb3-4c1c-9808-b63931479c0e}, !- Source Object
  2,                                      !- Outlet Port
  {1c9b057c-c78c-420e-8ad2-9e681f5b23fc}, !- Target Object
  2;                                      !- Inlet Port

OS:Connection,
  {a4f9d087-662f-4830-b424-576426ca7264}, !- Handle
  Connection 12,                          !- Name
  {1c9b057c-c78c-420e-8ad2-9e681f5b23fc}, !- Source Object
  3,                                      !- Outlet Port
  {49e73564-8486-45fd-8f53-8c2e8102e049}, !- Target Object
  15;                                     !- Inlet Port

OS:Pump:VariableSpeed,
  {5810a67d-6185-41f8-9fa7-b833b78171df}, !- Handle
  SHW: Pump for Service Hot Water,        !- Name
  {32b95880-e414-4d32-868e-e9bc9dc458aa}, !- Inlet Node Name
  {6258928e-256e-486e-b3a1-dc8e03b774c8}, !- Outlet Node Name
  ,                                       !- Rated Flow Rate {m3/s}
  ,                                       !- Rated Pump Head {Pa}
  ,                                       !- Rated Power Consumption {W}
  ,                                       !- Motor Efficiency
  ,                                       !- Fraction of Motor Inefficiencies to Fluid Stream
  ,                                       !- Coefficient 1 of the Part Load Performance Curve