
OS:Version,
  {e0fd4ab7-6b63-4f36-b00f-6f8bc6c9f56d}, !- Handle
  1.2.3;                                  !- Version Identifier

OS:Schedule:Ruleset,
  {b7571306-50db-4609-bf5b-6ebda04b4d55}, !- Handle
  Always_On,                              !- Name
  {f88b82a1-d7eb-4c80-9488-ba74d5032438}, !- Schedule Type Limits Name
  {e41f6f1e-b3a6-41ab-bc0c-c6d498c10014}, !- Default Day Schedule Name
  {5b4848f0-9e2a-4f04-ae87-3d66783eaa3a}, !- Summer Design Day Schedule Name
  {0939b760-31c1-4f35-958e-2daa44708c9f}; !- Winter Design Day Schedule Name

OS:Schedule:Day,
  {e41f6f1e-b3a6-41ab-bc0c-c6d498c10014}, !- Handle
  Always_On_Default,                      !- Name
  {f88b82a1-d7eb-4c80-9488-ba74d5032438}, !- Schedule Type Limits Name
  ,                                       !- Interpolate to Timestep
  24,                                     !- Hour 1
  0,                                      !- Minute 1
  1;                                      !- Value Until Time 1

OS:Schedule:Day,
  {0939b760-31c1-4f35-958e-2daa44708c9f}, !- Handle
  Always_On_Winter_Design_Day,            !- Name
  {f88b82a1-d7eb-4c80-9488-ba74d5032438}, !- Schedule Type Limits Name
  ,                                       !- Interpolate to Timestep
  24,                                     !- Hour 1
  0,                                      !- Minute 1
  1;                                      !- Value Until Time 1

OS:Schedule:Day,
  {5b4848f0-9e2a-4f04-ae87-3d66783eaa3a}, !- Handle
  Always_On_Summer_Design_Day,            !- Name
  {f88b82a1-d7eb-4c80-9488-ba74d5032438}, !- Schedule Type Limits Name
  ,                                       !- Interpolate to Timestep
  24,                                     !- Hour 1
  0,                                      !- Minute 1
  1;                                      !- Value Until Time 1

OS:Construction,
  {f42e08c2-92c4-42f9-aa6d-177a2d6b4edc}, !- Handle
  INT-FLOOR-TOPSIDE,                      !- Name
  {2b8898a6-433e-4e04-876d-258b4507b78f}, !- Surface Rendering Name
  {fe8b0ecb-ccc4-4600-b5c8-2fcad3846cb5}, !- Layer 1
  {028999ad-3dbf-4451-b081-572eb0a58997}, !- Layer 2
  {58b7361e-6de2-4484-9c85-482ef1932360}; !- Layer 3

OS:Material,
  {fe8b0ecb-ccc4-4600-b5c8-2fcad3846cb5}, !- Handle
  1/2IN Gypsum,                           !- Name
  Smooth,                                 !- Roughness
  0.0127,                                 !- Thickness {m}
  0.1600,                                 !- Conductivity {W/m-K}
  784.9000,                               !- Density {kg/m3}
  830.0000,                               !- Specific Heat {J/kg-K}
  0.9000,                                 !- Thermal Absorptance
  0.9200,                                 !- Solar Absorptance
  0.9200;                                 !- Visible Absorptance

OS:Material,
  {028999ad-3dbf-4451-b081-572eb0a58997}, !- Handle
  4IN CONCRETE HW,                        !- Name
  Rough,                                  !- Roughness
  0.1016,                                 !- Thickness {m}
  1.3110,                                 !- Conductivity {W/m-K}
  2240.0000,                              !- Density {kg/m3}
  836.8000,                               !- Specific Heat {J/kg-K}
  0.9000,                                 !- Thermal Absorptance
  0.7000,                                 !- Solar Absorptance
  0.7000;                                 !- Visible Absorptance

OS:Material:NoMass,
  {58b7361e-6de2-4484-9c85-482ef1932360}, !- Handle
  CP02 CARPET PAD,                        !- Name
  VeryRough,                              !- Roughness
  0.2165,                                 !- Thermal Resistance {m2-K/W}
  0.9000,                                 !- Thermal Absorptance
  0.7000,                                 !- Solar Absorptance
  0.8000;                                 !- Visible Absorptance

OS:StandardsInformation:Construction,
  {d2b58352-e613-44e0-8f49-77e661b45438}, !- Handle
  {f42e08c2-92c4-42f9-aa6d-177a2d6b4edc}, ! Construction Name
  ,                                       ! Intended Surface Type
  Mass,                                   ! Construction Type
  0,                                      ! Perturbable Layer
  Insulation,                             ! Perturbable Layer Type
  ;                                       ! Other Perturbable Layer Type

OS:Construction,
  {b9371021-00b1-4863-abdb-7a968ffb0f33}, !- Handle
  INT-FLOOR-UNDERSIDE,                    !- Name
  {0f0f0a95-6d47-4e9a-89ba-d6364207095d}, !- Surface Rendering Name
  {58b7361e-6de2-4484-9c85-482ef1932360}, !- Layer 1
  {028999ad-3dbf-4451-b081-572eb0a58997}, !- Layer 2
  {fe8b0ecb-ccc4-4600-b5c8-2fcad3846cb5}; !- Layer 3

OS:StandardsInformation:Construction,
  {0ee39b23-ad98-4f0a-8a7c-d5401b39dcf0}, !- Handle
  {b9371021-00b1-4863-abdb-7a968ffb0f33}, ! Construction Name
  ,                                       ! Intended Surface Type
  Mass,                                   ! Construction Type
  1,                                      ! Perturbable Layer
  Insulation,                             ! Perturbable Layer Type
  ;                                       ! Other Perturbable Layer Type

OS:Construction,
  {b10650dc-52b3-4d28-95c3-db3cb5ba2337}, !- Handle
  Standard_Int-Wall,                      !- Name
  {bdaad035-340b-4d71-977c-fca999db8fd5}, !- Surface Rendering Name
  {fe8b0ecb-ccc4-4600-b5c8-2fcad3846cb5}, !- Layer 1
  {fe8b0ecb-ccc4-4600-b5c8-2fcad3846cb5}; !- Layer 2

OS:StandardsInformation:Construction,
  {30422ef3-cac9-4a51-a608-02d3dbbd2d51}, !- Handle
  {b10650dc-52b3-4d28-95c3-db3cb5ba2337}, ! Construction Name
  ,                                       ! Intended Surface Type
  Mass,                                   ! Construction Type
  0,                                      ! Perturbable Layer
  Insulation,                             ! Perturbable Layer Type
  ;                                       ! Other Perturbable Layer Type

OS:DefaultSurfaceConstructions,
  {da509120-d590-436e-b3b3-95ac63cd7374}, !- Handle
  Default Surface Constructions 1,        !- Name
  {f42e08c2-92c4-42f9-aa6d-177a2d6b4edc}, !- Floor Construction Name
  {b10650dc-52b3-4d28-95c3-db3cb5ba2337}, !- Wall Construction Name
  {b9371021-00b1-4863-abdb-7a968ffb0f33}; !- Roof Ceiling Construction Name

OS:DefaultConstructionSet,
  {6e3eaf2d-8452-4daf-9ee6-662b24402b65}, !- Handle
  Default Construction Set 1,             !- Name
  {30a7e54d-49e4-4123-ae1b-b5f3cccea1cc}, !- Default Exterior Surface Constructions Name
  {da509120-d590-436e-b3b3-95ac63cd7374}, !- Default Interior Surface Constructions Name
  {f48743ed-14bb-4beb-9378-76403e8479a9}, !- Default Ground Contact Surface Constructions Name
  {e9263bd6-9bb2-4f93-8ff2-9fce8b1cbb4d}, !- Default Exterior SubSurface Constructions Name
  {726218c7-9466-435a-b3f2-7d019197ee36}, !- Default Interior SubSurface Constructions Name
  ,                                       !- Interior Partition Construction Name
  ,                                       !- Space Shading Construction Name
  ,                                       !- Building Shading Construction Name
  ;                                       !- Site Shading Construction Name

OS:Schedule:Ruleset,
  {54a5d663-2183-4481-8dce-3e20693a8e5a}, !- Handle
  PNNL_Asset_Rating_Office_Hvac_Schedule, !- Name
  {f88b82a1-d7eb-4c80-9488-ba74d5032438}, !- Schedule Type Limits Name
  {f670c2ac-6bb3-428f-8610-4566c496c239}, !- Default Day Schedule Name
  {2a862dfd-49b3-432f-8e80-ba1ec0a93afe}, !- Summer Design Day Schedule Name
  {ccfa9a53-2be4-4590-994f-5bb894fe3cd3}; !- Winter Design Day Schedule Name

OS:Schedule:Day,
  {f670c2ac-6bb3-428f-8610-4566c496c239}, !- Handle
  PNNL_Asset_Rating_Office_Hvac_Schedule_Week_Day, !- Name
  {f88b82a1-d7eb-4c80-9488-ba74d5032438}, !- Schedule Type Limits Name
  ,                                       !- Interpolate to Timestep
  1,                                      !- Hour 1
  0,                                      !- Minute 1
  0,                                      !- Value Until Time 1
  2,                                      !- Hour 2
  0,                                      !- Minute 2
  0,                                      !- Value Until Time 2
  3,                                      !- Hour 3
  0,                                      !- Minute 3
  0,                                      !- Value Until Time 3
  4,                                      !- Hour 4
  0,                                      !- Minute 4
  0,                                      !- Value Until Time 4
  5,                                      !- Hour 5
  0,                                      !- Minute 5
  0,                                      !- Value Until Time 5
  6,                                      !- Hour 6
  0,                                      !- Minute 6
  1,                                      !- Value Until Time 6
  7,                                      !- Hour 7
  0,                                      !- Minute 7
  1,                                      !- Value Until Time 7
  8,                                      !- Hour 8
  0,                                      !- Minute 8
  1,                                      !- Value Until Time 8
  9,                                      !- Hour 9
  0,                                      !- Minute 9
  1,                                      !- Value Until Time 9
  10,                                     !- Hour 10
  0,                                      !- Minute 10
  1,                                      !- Value Until Time 10
  11,                                     !- Hour 11
  0,                                      !- Minute 11
  1,                                      !- Value Until Time 11
  12,                                     !- Hour 12
  0,                                      !- Minute 12
  1,                                      !- Value Until Time 12
  13,                                     !- Hour 13
  0,                                      !- Minute 13
  1,                                      !- Value Until Time 13
  14,                                     !- Hour 14
  0,                                      !- Minute 14
  1,                                      !- Value Until Time 14
  15,                                     !- Hour 15
  0,                                      !- Minute 15
  1,                                      !- Value Until Time 15
  16,                                     !- Hour 16
  0,                                      !- Minute 16
  1,                                      !- Value Until Time 16
  17,                                     !- Hour 17
  0,                                      !- Minute 17
  1,                                      !- Value Until Time 17
  18,                                     !- Hour 18
  0,                                      !- Minute 18
  1,                                      !- Value Until Time 18
  19,                                     !- Hour 19
  0,                                      !- Minute 19
  1,                                      !- Value Until Time 19
  20,                                     !- Hour 20
  0,                                      !- Minute 20
  1,                                      !- Value Until Time 20
  21,                                     !- Hour 21
  0,                                      !- Minute 21
  1,                                      !- Value Until Time 21
  22,                                     !- Hour 22
  0,                                      !- Minute 22
  1,                                      !- Value Until Time 22
  23,                                     !- Hour 23
  0,                                      !- Minute 23
  0,                                      !- Value Until Time 23
  24,                                     !- Hour 24
  0,                                      !- Minute 24
  0;                                      !- Value Until Time 24

OS:Schedule:Day,
  {2a862dfd-49b3-432f-8e80-ba1ec0a93afe}, !- Handle
  PNNL_Asset_Rating_Office_Hvac_Schedule_Summer_Design_Day, !- Name
  {f88b82a1-d7eb-4c80-9488-ba74d5032438}, !- Schedule Type Limits Name
  ,                                       !- Interpolate to Timestep
  1,                                      !- Hour 1
  0,                                      !- Minute 1
  0,                                      !- Value Until Time 1
  2,                                      !- Hour 2
  0,                                      !- Minute 2
  0,                                      !- Value Until Time 2
  3,                                      !- Hour 3
  0,                                      !- Minute 3
  0,                                      !- Value Until Time 3
  4,                                      !- Hour 4
  0,                                      !- Minute 4
  0,                                      !- Value Until Time 4
  5,                                      !- Hour 5
  0,                                      !- Minute 5
  0,                                      !- Value Until Time 5
  6,                                      !- Hour 6
  0,                                      !- Minute 6
  0,                                      !- Value Until Time 6
  7,                                      !- Hour 7
  0,                                      !- Minute 7
  1,                                      !- Value Until Time 7
  8,                                      !- Hour 8
  0,                                      !- Minute 8
  1,                                      !- Value Until Time 8
  9,                                      !- Hour 9
  0,                                      !- Minute 9
  1,                                      !- Value Until Time 9
  10,                                     !- Hour 10
  0,                                      !- Minute 10
  1,                                      !- Value Until Time 10
  11,                                     !- Hour 11
  0,                                      !- Minute 11
  1,                                      !- Value Until Time 11
  12,                                     !- Hour 12
  0,                                      !- Minute 12
  1,                                      !- Value Until Time 12
  13,                                     !- Hour 13
  0,                                      !- Minute 13
  1,                                      !- Value Until Time 13
  14,                                     !- Hour 14
  0,                                      !- Minute 14
  1,                                      !- Value Until Time 14
  15,                                     !- Hour 15
  0,                                      !- Minute 15
  1,                                      !- Value Until Time 15
  16,                                     !- Hour 16
  0,                                      !- Minute 16
  1,                                      !- Value Until Time 16
  17,                                     !- Hour 17
  0,                                      !- Minute 17
  1,                                      !- Value Until Time 17
  18,                                     !- Hour 18
  0,                                      !- Minute 18
  1,                                      !- Value Until Time 18
  19,                                     !- Hour 19
  0,                                      !- Minute 19
  1,                                      !- Value Until Time 19
  20,                                     !- Hour 20
  0,                                      !- Minute 20
  1,                                      !- Value Until Time 20
  21,                                     !- Hour 21
  0,                                      !- Minute 21
  1,                                      !- Value Until Time 21
  22,                                     !- Hour 22
  0,                                      !- Minute 22
  1,                                      !- Value Until Time 22
  23,                                     !- Hour 23
  0,                                      !- Minute 23
  0,                                      !- Value Until Time 23
  24,                                     !- Hour 24
  0,                                      !- Minute 24
  0;                                      !- Value Until Time 24

OS:Schedule:Day,
  {ccfa9a53-2be4-4590-994f-5bb894fe3cd3}, !- Handle
  PNNL_Asset_Rating_Office_Hvac_Schedule_Winter_Design_Day, !- Name
  {f88b82a1-d7eb-4c80-9488-ba74d5032438}, !- Schedule Type Limits Name
  ,                                       !- Interpolate to Timestep
  1,                                      !- Hour 1
  0,                                      !- Minute 1
  0,                                      !- Value Until Time 1
  2,                                      !- Hour 2
  0,                                      !- Minute 2
  0,                                      !- Value Until Time 2
  3,                                      !- Hour 3
  0,                                      !- Minute 3
  0,                                      !- Value Until Time 3
  4,                                      !- Hour 4
  0,                                      !- Minute 4
  0,                                      !- Value Until Time 4
  5,                                      !- Hour 5
  0,                                      !- Minute 5
  0,                                      !- Value Until Time 5
  6,                                      !- Hour 6
  0,                                      !- Minute 6
  0,                                      !- Value Until Time 6
  7,                                      !- Hour 7
  0,                                      !- Minute 7
  1,                                      !- Value Until Time 7
  8,                                      !- Hour 8
  0,                                      !- Minute 8
  1,                                      !- Value Until Time 8
  9,                                      !- Hour 9
  0,                                      !- Minute 9
  1,                                      !- Value Until Time 9
  10,                                     !- Hour 10
  0,                                      !- Minute 10
  1,                                      !- Value Until Time 10
  11,                                     !- Hour 11
  0,                                      !- Minute 11
  1,                                      !- Value Until Time 11
  12,                                     !- Hour 12
  0,                                      !- Minute 12
  1,                                      !- Value Until Time 12
  13,                                     !- Hour 13
  0,                                      !- Minute 13
  1,                                      !- Value Until Time 13
  14,                                     !- Hour 14
  0,                                      !- Minute 14
  1,                                      !- Value Until Time 14
  15,                                     !- Hour 15
  0,                                      !- Minute 15
  1,                                      !- Value Until Time 15
  16,                                     !- Hour 16
  0,                                      !- Minute 16
  1,                                      !- Value Until Time 16
  17,                                     !- Hour 17
  0,                                      !- Minute 17
  1,                                      !- Value Until Time 17
  18,                                     !- Hour 18
  0,                                      !- Minute 18
  1,                                      !- Value Until Time 18
  19,                                     !- Hour 19
  0,                                      !- Minute 19
  0,                                      !- Value Until Time 19
  20,                                     !- Hour 20
  0,                                      !- Minute 20
  0,                                      !- Value Until Time 20
  21,                                     !- Hour 21
  0,                                      !- Minute 21
  0,                                      !- Value Until Time 21
  22,                                     !- Hour 22
  0,                                      !- Minute 22
  0,                                      !- Value Until Time 22
  23,                                     !- Hour 23
  0,                                      !- Minute 23
  0,                                      !- Value Until Time 23
  24,                                     !- Hour 24
  0,                                      !- Minute 24
  0;                                      !- Value Until Time 24

OS:Schedule:Rule,
  {dc1f7e74-0a38-42eb-9b24-f19c44aad841}, !- Handle
  PNNL_Asset_Rating_Office_Hvac_Schedule_Sunday_Rule, !- Name
  {54a5d663-2183-4481-8dce-3e20693a8e5a}, !- Schedule Ruleset Name
  0,                                      !- Rule Order
  {b22730ad-7398-4059-b6ee-da3aafd15a9b}, !- Day Schedule Name
  Yes;                                    !- Apply Sunday

OS:Schedule:Day,
  {b22730ad-7398-4059-b6ee-da3aafd15a9b}, !- Handle
  PNNL_Asset_Rating_Office_Hvac_Schedule_Sunday, !- Name
  {f88b82a1-d7eb-4c80-9488-ba74d5032438}, !- Schedule Type Limits Name
  ,                                       !- Interpolate to Timestep
  1,                                      !- Hour 1
  0,                                      !- Minute 1
  0,                                      !- Value Until Time 1
  2,                                      !- Hour 2
  0,                                      !- Minute 2
  0,                                      !- Value Until Time 2
  3,                                      !- Hour 3
  0,                                      !- Minute 3
  0,                                      !- Value Until Time 3
  4,                                      !- Hour 4
  0,                                      !- Minute 4
  0,                                      !- Value Until Time 4
  5,                                      !- Hour 5
  0,                                      !- Minute 5
  0,                                      !- Value Until Time 5
  6,                                      !- Hour 6
  0,                                      !- Minute 6
  0,                                      !- Value Until Time 6
  7,                                      !- Hour 7
  0,                                      !- Minute 7
  0,                                      !- Value Until Time 7
  8,                                      !- Hour 8
  0,                                      !- Minute 8
  0,                                      !- Value Until Time 8
  9,                                      !- Hour 9
  0,                                      !- Minute 9
  0,                                      !- Value Until Time 9
  10,                                     !- Hour 10
  0,                                      !- Minute 10
  0,                                      !- Value Until Time 10
  11,                                     !- Hour 11
  0,                                      !- Minute 11
  0,                                      !- Value Until Time 11
  12,                                     !- Hour 12
  0,                                      !- Minute 12
  0,                                      !- Value Until Time 12
  13,                                     !- Hour 13
  0,                                      !- Minute 13
  0,                                      !- Value Until Time 13
  14,                                     !- Hour 14
  0,                                      !- Minute 14
  0,                                      !- Value Until Time 14
  15,                                     !- Hour 15
  0,                                      !- Minute 15
  0,                                      !- Value Until Time 15
  16,                                     !- Hour 16
  0,                                      !- Minute 16
  0,                                      !- Value Until Time 16
  17,                                     !- Hour 17
  0,                                      !- Minute 17
  0,                                      !- Value Until Time 17
  18,                                     !- Hour 18
  0,                                      !- Minute 18
  0,                                      !- Value Until Time 18
  19,                                     !- Hour 19
  0,                                      !- Minute 19
  0,                                      !- Value Until Time 19
  20,                                     !- Hour 20
  0,                                      !- Minute 20
  0,                                      !- Value Until Time 20
  21,                                     !- Hour 21
  0,                                      !- Minute 21
  0,                                      !- Value Until Time 21
  22,                                     !- Hour 22
  0,                                      !- Minute 22
  0,                                      !- Value Until Time 22
  23,                                     !- Hour 23
  0,                                      !- Minute 23
  0,                                      !- Value Until Time 23
  24,                                     !- Hour 24
  0,                                      !- Minute 24
  0;                                      !- Value Until Time 24

OS:Schedule:Rule,
  {8796f859-e416-4f03-aed6-1eb65e3bf97b}, !- Handle
  PNNL_Asset_Rating_Office_Hvac_Schedule_Saturday_Rule, !- Name
  {54a5d663-2183-4481-8dce-3e20693a8e5a}, !- Schedule Ruleset Name
  1,                                      !- Rule Order
  {fd804a41-033c-4663-837f-6e11fbfe943b}, !- Day Schedule Name
  ,                                       !- Apply Sunday
  ,                                       !- Apply Monday
  ,                                       !- Apply Tuesday
  ,                                       !- Apply Wednesday
  ,                                       !- Apply Thursday
  ,                                       !- Apply Friday
  Yes;                                    !- Apply Saturday

OS:Schedule:Day,
  {fd804a41-033c-4663-837f-6e11fbfe943b}, !- Handle
  PNNL_Asset_Rating_Office_Hvac_Schedule_Saturday, !- Name
  {f88b82a1-d7eb-4c80-9488-ba74d5032438}, !- Schedule Type Limits Name
  ,                                       !- Interpolate to Timestep
  1,                                      !- Hour 1
  0,                                      !- Minute 1
  0,                                      !- Value Until Time 1
  2,                                      !- Hour 2
  0,                                      !- Minute 2
  0,                                      !- Value Until Time 2
  3,                                      !- Hour 3
  0,                                      !- Minute 3
  0,                                      !- Value Until Time 3
  4,                                      !- Hour 4
  0,                                      !- Minute 4
  0,                                      !- Value Until Time 4
  5,                                      !- Hour 5
  0,                                      !- Minute 5
  0,                                      !- Value Until Time 5
  6,                                      !- Hour 6
  0,                                      !- Minute 6
  1,                                      !- Value Until Time 6
  7,                                      !- Hour 7
  0,                                      !- Minute 7
  1,                                      !- Value Until Time 7
  8,                                      !- Hour 8
  0,                                      !- Minute 8
  1,                                      !- Value Until Time 8
  9,                                      !- Hour 9
  0,                                      !- Minute 9
  1,                                      !- Value Until Time 9
  10,                                     !- Hour 10
  0,                                      !- Minute 10
  1,                                      !- Value Until Time 10
  11,                                     !- Hour 11
  0,                                      !- Minute 11
  1,                                      !- Value Until Time 11
  12,                                     !- Hour 12
  0,                                      !- Minute 12
  1,                                      !- Value Until Time 12
  13,                                     !- Hour 13
  0,                                      !- Minute 13
  1,                                      !- Value Until Time 13
  14,                                     !- Hour 14
  0,                                      !- Minute 14
  1,                                      !- Value Until Time 14
  15,                                     !- Hour 15
  0,                                      !- Minute 15
  1,                                      !- Value Until Time 15
  16,                                     !- Hour 16
  0,                                      !- Minute 16
  1,                                      !- Value Until Time 16
  17,                                     !- Hour 17
  0,                                      !- Minute 17